sim-profile: SimpleScalar/PISA Tool Set version 3.0 of August, 2003.
Copyright (c) 1994-2003 by Todd M. Austin, Ph.D. and SimpleScalar, LLC.
All Rights Reserved. This version of SimpleScalar is licensed for academic
non-commercial use.  No portion of this work may be used by any commercial
entity, or for any commercial purpose, without the prior written permission
of SimpleScalar, LLC (info@simplescalar.com).

sim: command line: /ubc/ece/home/courses/eece494/chronos/simplesim-3.0/sim-profile -pcstat sim_num_insn idct 

sim: simulation started @ Fri Jan 28 14:31:35 2011, options follow:

sim-profile: This simulator implements a functional simulator with
profiling support.  Run with the `-h' flag to see profiling options
available.

# -config                     # load configuration from a file
# -dumpconfig                 # dump configuration to a file
# -h                    false # print help message    
# -v                    false # verbose operation     
# -d                    false # enable debug message  
# -i                    false # start in Dlite debugger
-seed                       1 # random number generator seed (0 for timer seed)
# -q                    false # initialize and terminate immediately
# -chkpt               <null> # restore EIO trace execution from <fname>
# -redir:sim           <null> # redirect simulator output to file (non-interactive only)
# -redir:prog          <null> # redirect simulated program output to file
-nice                       0 # simulator scheduling priority
-max:inst                   0 # maximum number of inst's to execute
-all                    false # enable all profile options
-iclass                 false # enable instruction class profiling
-iprof                  false # enable instruction profiling
-brprof                 false # enable branch instruction profiling
-amprof                 false # enable address mode profiling
-segprof                false # enable load/store address segment profiling
-tsymprof               false # enable text symbol profiling
-taddrprof              false # enable text address profiling
-dsymprof               false # enable data symbol profiling
-internal               false # include compiler-internal symbols during symbol profiling
# -pcstat        sim_num_insn # profile stat(s) against text addr's (mult uses ok)

sim: ** starting functional simulation **

sim: ** simulation statistics **
sim_num_insn                  20332 # total number of instructions executed
sim_num_refs                   4976 # total number of loads and stores executed
sim_elapsed_time                  1 # total simulation time in seconds
sim_inst_rate            20332.0000 # simulation speed (in insts/sec)

sim_num_insn_by_pc     # total number of instructions executed (by text address)
sim_num_insn_by_pc.count = 1129
sim_num_insn_by_pc.total = 20331
sim_num_insn_by_pc.imin = 0x400140
sim_num_insn_by_pc.imax = 0x405fa0
sim_num_insn_by_pc.average =  18.0080
sim_num_insn_by_pc.std_dev =  43.6283
sim_num_insn_by_pc.overflows = 0
# pdf == prob dist fn, cdf == cumulative dist fn
#          index      count    pdf 
sim_num_insn_by_pc.start_dist
0x400140 1 0.00
0x400148 1 0.00
0x400150 1 0.00
0x400158 1 0.00
0x400160 1 0.00
0x400168 1 0.00
0x400170 1 0.00
0x400178 1 0.00
0x400180 1 0.00
0x400188 1 0.00
0x400190 1 0.00
0x400198 1 0.00
0x4001a0 1 0.00
0x4001a8 1 0.00
0x4001b0 1 0.00
0x4001b8 1 0.00
0x4001c0 1 0.00
0x4001c8 1 0.00
0x4001d0 1 0.00
0x4001d8 1 0.00
0x4001e0 1 0.00
0x4001f0 48 0.24
0x4001f8 48 0.24
0x400200 48 0.24
0x400208 48 0.24
0x400210 48 0.24
0x400218 48 0.24
0x400220 48 0.24
0x400228 48 0.24
0x400230 48 0.24
0x400238 48 0.24
0x400240 48 0.24
0x400248 48 0.24
0x400250 48 0.24
0x400258 48 0.24
0x400260 48 0.24
0x400268 48 0.24
0x400270 48 0.24
0x400278 48 0.24
0x400280 48 0.24
0x400288 48 0.24
0x400290 48 0.24
0x400298 48 0.24
0x4002a0 48 0.24
0x4002a8 48 0.24
0x4002b0 48 0.24
0x4002b8 48 0.24
0x4002c0 48 0.24
0x4002c8 48 0.24
0x4002d0 48 0.24
0x4002d8 48 0.24
0x4002e0 48 0.24
0x4002e8 48 0.24
0x4002f0 48 0.24
0x4002f8 48 0.24
0x400300 48 0.24
0x400308 48 0.24
0x400310 48 0.24
0x400318 48 0.24
0x400320 48 0.24
0x400328 48 0.24
0x400330 48 0.24
0x400338 48 0.24
0x400340 48 0.24
0x400348 48 0.24
0x400350 48 0.24
0x400358 48 0.24
0x400360 48 0.24
0x400368 48 0.24
0x400370 48 0.24
0x400378 48 0.24
0x400380 48 0.24
0x400388 48 0.24
0x400390 48 0.24
0x400398 48 0.24
0x4003a0 48 0.24
0x4003a8 48 0.24
0x4003b0 48 0.24
0x4003b8 48 0.24
0x4003c0 48 0.24
0x4003c8 48 0.24
0x4003d0 48 0.24
0x4003d8 48 0.24
0x4003e0 48 0.24
0x4003e8 48 0.24
0x4003f0 48 0.24
0x4003f8 48 0.24
0x400400 48 0.24
0x400408 48 0.24
0x400410 48 0.24
0x400418 48 0.24
0x400420 48 0.24
0x400428 48 0.24
0x400430 48 0.24
0x400438 48 0.24
0x400440 48 0.24
0x400448 48 0.24
0x400450 48 0.24
0x400458 48 0.24
0x400460 48 0.24
0x400468 48 0.24
0x400470 48 0.24
0x400478 48 0.24
0x400480 48 0.24
0x400488 48 0.24
0x400490 48 0.24
0x400498 48 0.24
0x4004a0 48 0.24
0x4004a8 48 0.24
0x4004b0 48 0.24
0x4004b8 48 0.24
0x4004c0 48 0.24
0x4004c8 48 0.24
0x4004d0 48 0.24
0x4004d8 48 0.24
0x4004e0 48 0.24
0x4004e8 48 0.24
0x4004f0 48 0.24
0x4004f8 48 0.24
0x400500 48 0.24
0x400508 48 0.24
0x400510 48 0.24
0x400518 48 0.24
0x400520 48 0.24
0x400528 48 0.24
0x400530 48 0.24
0x400538 48 0.24
0x400540 48 0.24
0x400548 48 0.24
0x400550 48 0.24
0x400558 48 0.24
0x400560 48 0.24
0x400568 48 0.24
0x400570 48 0.24
0x400578 48 0.24
0x400580 48 0.24
0x400588 48 0.24
0x400590 48 0.24
0x400598 48 0.24
0x4005a0 48 0.24
0x4005a8 48 0.24
0x4005b0 48 0.24
0x4005b8 48 0.24
0x4005c0 48 0.24
0x4005c8 48 0.24
0x4005d0 48 0.24
0x4005d8 48 0.24
0x4005e0 48 0.24
0x4005e8 48 0.24
0x4005f0 48 0.24
0x4005f8 48 0.24
0x400600 48 0.24
0x400608 48 0.24
0x400610 48 0.24
0x400618 48 0.24
0x400620 48 0.24
0x400628 48 0.24
0x400630 48 0.24
0x400638 48 0.24
0x400640 48 0.24
0x400648 48 0.24
0x400650 48 0.24
0x400658 48 0.24
0x400660 48 0.24
0x400668 48 0.24
0x400670 48 0.24
0x400678 48 0.24
0x400680 48 0.24
0x400688 48 0.24
0x400690 48 0.24
0x400698 48 0.24
0x4006a0 48 0.24
0x4006a8 48 0.24
0x4006b0 48 0.24
0x4006b8 48 0.24
0x4006c0 48 0.24
0x4006c8 48 0.24
0x4006d0 48 0.24
0x4006d8 48 0.24
0x4006e0 48 0.24
0x4006e8 48 0.24
0x4006f0 48 0.24
0x4006f8 48 0.24
0x400700 48 0.24
0x400708 48 0.24
0x400710 48 0.24
0x400718 48 0.24
0x400720 48 0.24
0x400728 48 0.24
0x400730 48 0.24
0x400738 48 0.24
0x400740 48 0.24
0x400748 48 0.24
0x400750 48 0.24
0x400758 48 0.24
0x400760 48 0.24
0x400768 48 0.24
0x400770 48 0.24
0x400778 48 0.24
0x400780 48 0.24
0x400788 48 0.24
0x400790 48 0.24
0x400798 48 0.24
0x4007a0 48 0.24
0x4007a8 48 0.24
0x4007b0 48 0.24
0x4007b8 48 0.24
0x4007c0 48 0.24
0x4007c8 48 0.24
0x4007d0 48 0.24
0x4007d8 48 0.24
0x4007e0 48 0.24
0x4007e8 48 0.24
0x4007f0 48 0.24
0x4007f8 48 0.24
0x400800 48 0.24
0x400808 48 0.24
0x400810 48 0.24
0x400818 48 0.24
0x400820 48 0.24
0x400828 48 0.24
0x400830 48 0.24
0x400838 48 0.24
0x400840 48 0.24
0x400848 48 0.24
0x400850 48 0.24
0x400858 48 0.24
0x400860 48 0.24
0x400868 48 0.24
0x400870 48 0.24
0x400878 48 0.24
0x400880 48 0.24
0x400888 48 0.24
0x400890 48 0.24
0x400898 48 0.24
0x4008a0 48 0.24
0x4008a8 48 0.24
0x4008b0 48 0.24
0x4008b8 48 0.24
0x4008c0 48 0.24
0x4008c8 48 0.24
0x4008d0 48 0.24
0x4008d8 48 0.24
0x4008e0 48 0.24
0x4008e8 48 0.24
0x4008f0 48 0.24
0x4008f8 48 0.24
0x400900 48 0.24
0x400908 48 0.24
0x400910 48 0.24
0x400918 48 0.24
0x400920 48 0.24
0x400928 48 0.24
0x400930 48 0.24
0x400938 48 0.24
0x400940 48 0.24
0x400948 48 0.24
0x400950 48 0.24
0x400958 48 0.24
0x400960 48 0.24
0x400968 48 0.24
0x400970 48 0.24
0x400978 48 0.24
0x400980 48 0.24
0x400988 48 0.24
0x400990 48 0.24
0x400998 48 0.24
0x4009a0 48 0.24
0x4009a8 48 0.24
0x4009b0 48 0.24
0x4009b8 48 0.24
0x4009c0 48 0.24
0x4009c8 48 0.24
0x4009d0 48 0.24
0x4009d8 48 0.24
0x4009e0 48 0.24
0x4009e8 48 0.24
0x4009f0 48 0.24
0x4009f8 48 0.24
0x400a00 48 0.24
0x400a08 48 0.24
0x400a10 48 0.24
0x400a18 48 0.24
0x400a20 48 0.24
0x400a28 48 0.24
0x400a30 48 0.24
0x400a38 48 0.24
0x400a40 48 0.24
0x400a48 48 0.24
0x400a50 48 0.24
0x400a58 48 0.24
0x400a60 48 0.24
0x400a68 48 0.24
0x400a70 48 0.24
0x400a78 48 0.24
0x400a80 48 0.24
0x400a88 48 0.24
0x400a90 48 0.24
0x400a98 48 0.24
0x400aa0 48 0.24
0x400aa8 48 0.24
0x400ab0 48 0.24
0x400ab8 48 0.24
0x400ac0 48 0.24
0x400ac8 48 0.24
0x400ad0 48 0.24
0x400ad8 1 0.00
0x400ae0 1 0.00
0x400ae8 1 0.00
0x400af0 1 0.00
0x400af8 1 0.00
0x400b00 1 0.00
0x400b08 1 0.00
0x400b10 6 0.03
0x400b18 6 0.03
0x400b20 48 0.24
0x400b28 48 0.24
0x400b30 48 0.24
0x400b38 48 0.24
0x400b40 48 0.24
0x400b48 48 0.24
0x400b50 6 0.03
0x400b58 6 0.03
0x400b60 48 0.24
0x400b68 48 0.24
0x400b70 48 0.24
0x400b78 48 0.24
0x400b80 48 0.24
0x400b88 48 0.24
0x400b90 6 0.03
0x400b98 6 0.03
0x400ba0 6 0.03
0x400ba8 1 0.00
0x400bb0 1 0.00
0x400bb8 1 0.00
0x400bc0 1 0.00
0x400bc8 1 0.00
0x400bd0 1 0.00
0x400bd8 1 0.00
0x400be0 1 0.00
0x400be8 1 0.00
0x400bf0 1 0.00
0x400bf8 1 0.00
0x400c00 1 0.00
0x400c08 1 0.00
0x400c10 1 0.00
0x400c18 1 0.00
0x400c20 1 0.00
0x400c28 1 0.00
0x400c30 1 0.00
0x400c38 1 0.00
0x400c40 1 0.00
0x400c48 1 0.00
0x400c50 1 0.00
0x400c58 1 0.00
0x400c60 1 0.00
0x400c68 1 0.00
0x400c70 1 0.00
0x400c78 1 0.00
0x400c80 1 0.00
0x400c88 1 0.00
0x400c90 1 0.00
0x400d40 1 0.00
0x400d48 1 0.00
0x400d50 1 0.00
0x400d58 1 0.00
0x400d60 1 0.00
0x400db0 1 0.00
0x400db8 1 0.00
0x400dc0 1 0.00
0x400dc8 1 0.00
0x400dd0 1 0.00
0x400dd8 1 0.00
0x400de0 1 0.00
0x400de8 1 0.00
0x400df0 1 0.00
0x400df8 1 0.00
0x400e00 1 0.00
0x400e08 1 0.00
0x400e18 1 0.00
0x400e20 1 0.00
0x400e28 1 0.00
0x400e30 1 0.00
0x400e38 1 0.00
0x401050 1 0.00
0x401058 1 0.00
0x401060 1 0.00
0x401068 1 0.00
0x401070 1 0.00
0x401078 1 0.00
0x401080 1 0.00
0x4010a0 1 0.00
0x4010c0 1 0.00
0x4010c8 1 0.00
0x4010d0 1 0.00
0x4010d8 1 0.00
0x4010e0 1 0.00
0x4010e8 1 0.00
0x401108 1 0.00
0x401110 1 0.00
0x401118 1 0.00
0x401120 1 0.00
0x401140 1 0.00
0x401148 1 0.00
0x401150 1 0.00
0x401158 1 0.00
0x401160 1 0.00
0x401168 1 0.00
0x401170 1 0.00
0x401178 1 0.00
0x401180 1 0.00
0x401188 1 0.00
0x401190 1 0.00
0x401198 1 0.00
0x4011a0 1 0.00
0x4011a8 1 0.00
0x4011b0 1 0.00
0x4011b8 1 0.00
0x4011c0 1 0.00
0x4011c8 1 0.00
0x4011d0 1 0.00
0x4011d8 1 0.00
0x4011e0 1 0.00
0x4011e8 1 0.00
0x4011f0 1 0.00
0x4011f8 1 0.00
0x401208 1 0.00
0x401210 1 0.00
0x401218 1 0.00
0x401220 1 0.00
0x401228 1 0.00
0x401230 1 0.00
0x401238 1 0.00
0x401240 1 0.00
0x401248 1 0.00
0x401250 1 0.00
0x401258 1 0.00
0x401260 1 0.00
0x401268 1 0.00
0x401270 1 0.00
0x401278 1 0.00
0x401280 1 0.00
0x401288 1 0.00
0x401290 1 0.00
0x401298 1 0.00
0x4012a0 1 0.00
0x4012a8 1 0.00
0x4012b0 1 0.00
0x4012b8 1 0.00
0x4012c0 1 0.00
0x4012c8 1 0.00
0x4012d8 1 0.00
0x4012e0 1 0.00
0x4012e8 1 0.00
0x4012f0 1 0.00
0x4012f8 1 0.00
0x401300 1 0.00
0x401308 1 0.00
0x401310 1 0.00
0x401318 1 0.00
0x401320 1 0.00
0x401328 1 0.00
0x401330 1 0.00
0x401338 1 0.00
0x401340 1 0.00
0x401348 1 0.00
0x401350 1 0.00
0x401358 1 0.00
0x401388 1 0.00
0x401390 1 0.00
0x4013a0 1 0.00
0x4013a8 1 0.00
0x4013c0 1 0.00
0x4013c8 1 0.00
0x4013d0 1 0.00
0x4013d8 1 0.00
0x4013e8 1 0.00
0x4013f0 1 0.00
0x4013f8 1 0.00
0x401400 1 0.00
0x401408 1 0.00
0x401690 1 0.00
0x401698 1 0.00
0x4016a0 1 0.00
0x4016a8 1 0.00
0x4016b8 1 0.00
0x4016c0 1 0.00
0x4016c8 1 0.00
0x4016d0 1 0.00
0x4016d8 1 0.00
0x4016e0 1 0.00
0x4016e8 1 0.00
0x4016f0 1 0.00
0x4016f8 1 0.00
0x401700 1 0.00
0x401708 1 0.00
0x401710 1 0.00
0x401718 1 0.00
0x401720 1 0.00
0x401728 1 0.00
0x401730 1 0.00
0x401738 1 0.00
0x401740 1 0.00
0x401748 1 0.00
0x401750 1 0.00
0x401758 1 0.00
0x401760 1 0.00
0x401778 1 0.00
0x401780 1 0.00
0x401788 1 0.00
0x401790 1 0.00
0x401798 1 0.00
0x4017a0 1 0.00
0x4017b0 1 0.00
0x4017b8 1 0.00
0x401b50 1 0.00
0x401b58 1 0.00
0x401b60 1 0.00
0x401b68 1 0.00
0x401b70 1 0.00
0x401b78 1 0.00
0x401b80 1 0.00
0x401b88 1 0.00
0x401b90 1 0.00
0x401b98 1 0.00
0x401ba0 1 0.00
0x401ba8 1 0.00
0x401bb0 1 0.00
0x401bb8 1 0.00
0x401bc0 1 0.00
0x401bc8 1 0.00
0x401bd0 1 0.00
0x401bd8 1 0.00
0x401be0 1 0.00
0x401be8 1 0.00
0x401bf0 1 0.00
0x401bf8 1 0.00
0x401c00 1 0.00
0x401c08 1 0.00
0x401c10 1 0.00
0x401c18 1 0.00
0x401d00 1 0.00
0x401d08 1 0.00
0x401d10 1 0.00
0x401d18 1 0.00
0x401d20 1 0.00
0x401d28 1 0.00
0x401d30 1 0.00
0x401d40 1 0.00
0x401d48 1 0.00
0x401d50 1 0.00
0x401d58 1 0.00
0x401d60 1 0.00
0x401d68 1 0.00
0x401d70 1 0.00
0x401d78 1 0.00
0x401d80 1 0.00
0x401d88 1 0.00
0x401d90 1 0.00
0x401d98 1 0.00
0x401da0 1 0.00
0x401da8 1 0.00
0x401db0 1 0.00
0x401db8 1 0.00
0x401dc0 1 0.00
0x402058 1 0.00
0x402060 1 0.00
0x402068 1 0.00
0x402070 1 0.00
0x402078 1 0.00
0x402080 1 0.00
0x402088 1 0.00
0x402090 1 0.00
0x4020a0 4 0.02
0x4020a8 4 0.02
0x4020b0 4 0.02
0x4020b8 4 0.02
0x4020c0 4 0.02
0x4020c8 4 0.02
0x4020d0 4 0.02
0x4020d8 1 0.00
0x4020e0 1 0.00
0x4020e8 1 0.00
0x4020f0 1 0.00
0x4020f8 1 0.00
0x402100 1 0.00
0x402108 3 0.01
0x402110 3 0.01
0x402128 3 0.01
0x402130 3 0.01
0x402138 3 0.01
0x402140 3 0.01
0x402148 3 0.01
0x402150 3 0.01
0x402158 1 0.00
0x402160 1 0.00
0x402168 3 0.01
0x402170 3 0.01
0x402178 3 0.01
0x402180 3 0.01
0x402198 3 0.01
0x4021a0 3 0.01
0x4021a8 3 0.01
0x4021b0 3 0.01
0x4021d8 3 0.01
0x4021e0 3 0.01
0x4021e8 3 0.01
0x4021f0 2 0.01
0x4021f8 2 0.01
0x402200 2 0.01
0x402208 2 0.01
0x402210 2 0.01
0x402228 3 0.01
0x402230 3 0.01
0x402238 1 0.00
0x402240 1 0.00
0x402248 1 0.00
0x402250 1 0.00
0x402258 3 0.01
0x402260 3 0.01
0x402268 2 0.01
0x402270 2 0.01
0x402278 2 0.01
0x402280 2 0.01
0x402288 1 0.00
0x402290 1 0.00
0x402298 1 0.00
0x4022a0 1 0.00
0x4022a8 1 0.00
0x4022c8 1 0.00
0x4022d0 3 0.01
0x4022d8 3 0.01
0x4022e0 3 0.01
0x4022e8 4 0.02
0x4022f0 4 0.02
0x4022f8 4 0.02
0x402300 4 0.02
0x402308 4 0.02
0x402310 4 0.02
0x402320 1 0.00
0x402328 1 0.00
0x402330 1 0.00
0x402338 1 0.00
0x402340 1 0.00
0x402348 1 0.00
0x402350 1 0.00
0x402358 1 0.00
0x402390 1 0.00
0x402398 1 0.00
0x4023a0 1 0.00
0x4023a8 1 0.00
0x4023b0 1 0.00
0x4023b8 1 0.00
0x4023c0 2 0.01
0x4023c8 2 0.01
0x4023d0 2 0.01
0x4023d8 2 0.01
0x4023e0 2 0.01
0x4023e8 2 0.01
0x4023f0 2 0.01
0x4023f8 2 0.01
0x402400 1 0.00
0x402408 1 0.00
0x402410 1 0.00
0x402418 1 0.00
0x402420 1 0.00
0x402428 1 0.00
0x402430 1 0.00
0x402438 1 0.00
0x402440 1 0.00
0x402448 1 0.00
0x4024c8 1 0.00
0x4024d0 1 0.00
0x4024d8 1 0.00
0x4024e0 5 0.02
0x4024e8 5 0.02
0x4024f0 5 0.02
0x4024f8 5 0.02
0x402500 5 0.02
0x402508 5 0.02
0x402510 5 0.02
0x402518 5 0.02
0x402520 5 0.02
0x402528 5 0.02
0x402530 4 0.02
0x402538 4 0.02
0x402540 4 0.02
0x402548 4 0.02
0x402550 4 0.02
0x402558 4 0.02
0x402560 4 0.02
0x402568 4 0.02
0x402570 4 0.02
0x402578 4 0.02
0x4025a8 4 0.02
0x4025b0 4 0.02
0x4025b8 4 0.02
0x4025c0 390 1.92
0x4025c8 390 1.92
0x4025d0 390 1.92
0x4025d8 390 1.92
0x4025e0 390 1.92
0x4025e8 390 1.92
0x4025f0 390 1.92
0x4025f8 390 1.92
0x402600 390 1.92
0x402608 390 1.92
0x402610 390 1.92
0x402618 390 1.92
0x402620 4 0.02
0x402628 4 0.02
0x402630 4 0.02
0x402638 12 0.06
0x402640 12 0.06
0x402648 12 0.06
0x402650 12 0.06
0x402658 4 0.02
0x402660 4 0.02
0x402688 4 0.02
0x402690 4 0.02
0x402860 1 0.00
0x402868 1 0.00
0x402870 1 0.00
0x402878 1 0.00
0x402880 1 0.00
0x402888 1 0.00
0x402890 1 0.00
0x402898 1 0.00
0x4028a0 1 0.00
0x4028a8 1 0.00
0x4028b8 1 0.00
0x4028c0 1 0.00
0x4028c8 1 0.00
0x4028d0 1 0.00
0x4028d8 1 0.00
0x4028e0 1 0.00
0x4028e8 1 0.00
0x4028f0 1 0.00
0x4028f8 1 0.00
0x402900 1 0.00
0x402908 1 0.00
0x402910 1 0.00
0x402918 1 0.00
0x402920 1 0.00
0x402928 1 0.00
0x402930 1 0.00
0x402938 1 0.00
0x402940 1 0.00
0x402948 1 0.00
0x402950 1 0.00
0x402958 1 0.00
0x402960 1 0.00
0x402968 1 0.00
0x402970 1 0.00
0x402978 1 0.00
0x4029c8 1 0.00
0x4029d0 1 0.00
0x4029d8 1 0.00
0x4029e0 1 0.00
0x4029e8 1 0.00
0x4029f0 1 0.00
0x4029f8 1 0.00
0x402a10 1 0.00
0x402a18 1 0.00
0x402a20 1 0.00
0x402a28 1 0.00
0x402a30 1 0.00
0x402a38 1 0.00
0x402a40 1 0.00
0x402a48 1 0.00
0x402a50 1 0.00
0x402a58 1 0.00
0x402a60 1 0.00
0x402a68 1 0.00
0x402a70 1 0.00
0x402ac0 1 0.00
0x402ac8 1 0.00
0x402ad0 1 0.00
0x402ad8 1 0.00
0x402ae0 1 0.00
0x402ae8 1 0.00
0x402af0 1 0.00
0x402af8 1 0.00
0x402b00 1 0.00
0x402b08 1 0.00
0x402b10 1 0.00
0x402b18 1 0.00
0x402b20 1 0.00
0x402b28 1 0.00
0x402b30 1 0.00
0x402b38 1 0.00
0x402b40 1 0.00
0x402b48 1 0.00
0x402b50 1 0.00
0x402b58 1 0.00
0x402b60 1 0.00
0x402b68 1 0.00
0x402b70 1 0.00
0x402b78 1 0.00
0x402b80 1 0.00
0x402b88 1 0.00
0x402b90 1 0.00
0x402b98 1 0.00
0x402c50 1 0.00
0x402c58 1 0.00
0x402c60 1 0.00
0x402c68 1 0.00
0x402c70 1 0.00
0x402c78 1 0.00
0x402c80 1 0.00
0x402c88 1 0.00
0x402c90 1 0.00
0x402c98 1 0.00
0x402ca0 1 0.00
0x402ca8 1 0.00
0x402cb0 1 0.00
0x402cb8 1 0.00
0x402cc0 1 0.00
0x402cc8 1 0.00
0x402cd0 1 0.00
0x402cd8 1 0.00
0x402ce0 1 0.00
0x402ce8 1 0.00
0x402cf0 1 0.00
0x402cf8 1 0.00
0x402d00 1 0.00
0x402d08 1 0.00
0x402d10 1 0.00
0x402d18 1 0.00
0x402d20 1 0.00
0x402d28 1 0.00
0x402d30 1 0.00
0x402d38 1 0.00
0x402d40 1 0.00
0x402d48 1 0.00
0x402d50 1 0.00
0x402d58 1 0.00
0x402d60 1 0.00
0x402d68 1 0.00
0x402d70 1 0.00
0x402d78 1 0.00
0x402d80 1 0.00
0x402d88 1 0.00
0x402d90 1 0.00
0x402d98 1 0.00
0x402da0 1 0.00
0x402da8 1 0.00
0x402db0 1 0.00
0x402db8 1 0.00
0x402dc0 1 0.00
0x402dc8 1 0.00
0x4030d8 1 0.00
0x4030e0 1 0.00
0x4030e8 1 0.00
0x4030f0 1 0.00
0x4030f8 1 0.00
0x403100 1 0.00
0x403108 1 0.00
0x403110 1 0.00
0x403118 1 0.00
0x403120 1 0.00
0x403128 1 0.00
0x403130 1 0.00
0x403158 1 0.00
0x403160 1 0.00
0x403190 1 0.00
0x403198 1 0.00
0x4031a0 1 0.00
0x4031a8 1 0.00
0x4035d8 2 0.01
0x4035e0 2 0.01
0x4035e8 2 0.01
0x4035f0 2 0.01
0x4035f8 2 0.01
0x403600 2 0.01
0x403608 2 0.01
0x403610 2 0.01
0x403618 2 0.01
0x403620 2 0.01
0x403628 2 0.01
0x403630 2 0.01
0x403638 2 0.01
0x403640 2 0.01
0x403648 2 0.01
0x403650 2 0.01
0x403658 2 0.01
0x403660 2 0.01
0x403668 2 0.01
0x403670 2 0.01
0x403678 2 0.01
0x403680 2 0.01
0x403688 2 0.01
0x403690 2 0.01
0x403698 2 0.01
0x4036a0 2 0.01
0x4036a8 2 0.01
0x4036b0 2 0.01
0x403868 2 0.01
0x403870 2 0.01
0x403878 1 0.00
0x403880 1 0.00
0x403888 1 0.00
0x403890 1 0.00
0x403898 1 0.00
0x4038a0 1 0.00
0x4038a8 1 0.00
0x403910 2 0.01
0x403918 2 0.01
0x403920 2 0.01
0x403928 2 0.01
0x403960 2 0.01
0x403968 2 0.01
0x403970 2 0.01
0x403978 2 0.01
0x403980 2 0.01
0x403988 2 0.01
0x403990 2 0.01
0x403998 2 0.01
0x4039a0 2 0.01
0x4039a8 2 0.01
0x4039b0 2 0.01
0x403cb0 2 0.01
0x403cb8 2 0.01
0x403cc0 2 0.01
0x403cc8 2 0.01
0x403cd0 2 0.01
0x403cd8 2 0.01
0x403ce0 2 0.01
0x403ce8 2 0.01
0x403cf0 2 0.01
0x403d08 2 0.01
0x403d10 2 0.01
0x403d18 2 0.01
0x403d20 2 0.01
0x403d28 2 0.01
0x403d30 2 0.01
0x403d38 2 0.01
0x403d40 2 0.01
0x403d48 2 0.01
0x403d50 2 0.01
0x403d58 2 0.01
0x4041f0 2 0.01
0x4041f8 2 0.01
0x404200 2 0.01
0x404208 2 0.01
0x404210 2 0.01
0x404218 2 0.01
0x404220 2 0.01
0x404228 2 0.01
0x404230 2 0.01
0x404238 2 0.01
0x404240 2 0.01
0x404248 2 0.01
0x404250 2 0.01
0x404258 2 0.01
0x404260 2 0.01
0x404278 2 0.01
0x404280 2 0.01
0x404288 2 0.01
0x404290 2 0.01
0x404298 2 0.01
0x4042a0 2 0.01
0x4042a8 2 0.01
0x4042d0 2 0.01
0x4042d8 2 0.01
0x4042e0 2 0.01
0x4042e8 2 0.01
0x4042f0 2 0.01
0x404328 2 0.01
0x404330 2 0.01
0x404338 2 0.01
0x404340 2 0.01
0x404348 2 0.01
0x404350 2 0.01
0x404358 2 0.01
0x404360 2 0.01
0x404368 2 0.01
0x404370 2 0.01
0x404378 2 0.01
0x404380 2 0.01
0x404388 2 0.01
0x404390 2 0.01
0x404398 2 0.01
0x4043a0 2 0.01
0x4043a8 2 0.01
0x4043b0 2 0.01
0x4043b8 2 0.01
0x4043c0 2 0.01
0x4043c8 2 0.01
0x4043d0 2 0.01
0x4043d8 2 0.01
0x4043e0 2 0.01
0x4043e8 2 0.01
0x4043f0 2 0.01
0x4043f8 2 0.01
0x404400 2 0.01
0x404408 2 0.01
0x404410 2 0.01
0x404418 1 0.00
0x404420 1 0.00
0x404438 1 0.00
0x404440 1 0.00
0x404448 1 0.00
0x404450 1 0.00
0x404458 1 0.00
0x404460 1 0.00
0x404468 1 0.00
0x4044a0 1 0.00
0x4044a8 1 0.00
0x4044b0 1 0.00
0x4044d8 2 0.01
0x4044e0 2 0.01
0x4044e8 2 0.01
0x4044f0 2 0.01
0x4044f8 2 0.01
0x404500 2 0.01
0x404508 2 0.01
0x404510 2 0.01
0x404518 2 0.01
0x404548 2 0.01
0x404610 2 0.01
0x404618 2 0.01
0x404620 2 0.01
0x404648 2 0.01
0x404650 2 0.01
0x404660 2 0.01
0x404668 2 0.01
0x404670 2 0.01
0x404678 2 0.01
0x404680 2 0.01
0x404688 2 0.01
0x4046b8 2 0.01
0x4046c0 2 0.01
0x4046c8 2 0.01
0x4046d0 2 0.01
0x4046e8 2 0.01
0x4046f0 2 0.01
0x4046f8 2 0.01
0x404700 2 0.01
0x404708 2 0.01
0x404710 2 0.01
0x404718 2 0.01
0x404720 2 0.01
0x404cb8 3 0.01
0x404cc0 3 0.01
0x404cc8 3 0.01
0x404cd0 3 0.01
0x404cd8 3 0.01
0x404ce0 3 0.01
0x404ce8 3 0.01
0x404cf0 3 0.01
0x404cf8 3 0.01
0x404d00 3 0.01
0x404d08 3 0.01
0x404d10 3 0.01
0x404d18 3 0.01
0x404d20 3 0.01
0x404d28 3 0.01
0x404ed0 2 0.01
0x404ed8 2 0.01
0x404ee0 2 0.01
0x404ee8 2 0.01
0x404ef0 2 0.01
0x404ef8 2 0.01
0x405370 5 0.02
0x405378 5 0.02
0x405380 5 0.02
0x405388 5 0.02
0x405390 1 0.00
0x405398 1 0.00
0x4053a0 4 0.02
0x4053a8 4 0.02
0x4053b0 4 0.02
0x4053b8 4 0.02
0x4053c0 4 0.02
0x4053c8 4 0.02
0x4053d0 3 0.01
0x4053d8 5 0.02
0x4053e0 5 0.02
0x4053e8 5 0.02
0x4053f0 5 0.02
0x405c50 2 0.01
0x405c58 2 0.01
0x405c60 2 0.01
0x405c68 2 0.01
0x405c70 2 0.01
0x405c78 2 0.01
0x405c80 2 0.01
0x405c88 2 0.01
0x405c90 2 0.01
0x405c98 2 0.01
0x405ca0 2 0.01
0x405ca8 1 0.00
0x405cb0 1 0.00
0x405cb8 1 0.00
0x405cc0 1 0.00
0x405cc8 1 0.00
0x405cd0 1 0.00
0x405cd8 1 0.00
0x405ce0 1 0.00
0x405d08 1 0.00
0x405d10 1 0.00
0x405d50 1 0.00
0x405d58 1 0.00
0x405d60 2 0.01
0x405d68 2 0.01
0x405d70 2 0.01
0x405d78 2 0.01
0x405d80 2 0.01
0x405e60 2 0.01
0x405e68 2 0.01
0x405e70 2 0.01
0x405e78 2 0.01
0x405e80 2 0.01
0x405f10 4 0.02
0x405f18 4 0.02
0x405f20 4 0.02
0x405f30 4 0.02
0x405f38 4 0.02
0x405f40 4 0.02
0x405f48 3 0.01
0x405f50 3 0.01
0x405f58 3 0.01
0x405f60 1 0.00
0x405f80 1 0.00
0x405f88 1 0.00
0x405f90 1 0.00
0x405f98 1 0.00
0x405fa0 1 0.00
sim_num_insn_by_pc.end_dist

ld_text_base             0x00400000 # program text (code) segment base
ld_text_size                  24800 # program text (code) size in bytes
ld_data_base             0x10000000 # program initialized data segment base
ld_data_size                   4096 # program init'ed `.data' and uninit'ed `.bss' size in bytes
ld_stack_base            0x7fffc000 # program stack segment base (highest address in stack)
ld_stack_size                 16384 # program initial stack size
ld_prog_entry            0x00400140 # program entry point (initial PC)
ld_environ_base          0x7fff8000 # program environment base address address
ld_target_big_endian              0 # target executable endian-ness, non-zero if big endian
mem.page_count                   14 # total number of pages allocated
mem.page_mem                    56k # total size of memory pages allocated
mem.ptab_misses                 587 # total first level page table misses
mem.ptab_accesses            243490 # total page table accesses
mem.ptab_miss_rate           0.0024 # first level page table miss rate

+--------------------------------------------------------------+
| effective code range:         [0, fffffff8]                  |
| effective bpred count:        0                              |
| effective sim cycles:         0                              |
| effective bpred misses:       0                              |
| effective icache misses:      0                              |
+--------------------------------------------------------------+

